%NPROC=1', f'%MEM=512MB
%chk=binder_31.antechamber.chk
#P HF/6-31G* OPT(CalcFC)

Gaussian Calculation

0 1
     C  1.42200 29.03400  6.76800 
     C -1.45000 32.16300  8.00800 
     C -0.58200 26.62500  8.97800 
     C -1.25000 25.76700 10.08100 
     C -1.35500 24.33100  9.52700 
     C -1.65300 23.27300 10.60300 
     C -0.78100 23.34300 11.86500 
     C -0.71200 24.77900 12.43200 
     C -0.38800 25.86000 11.38000 
     C  4.73200 25.86400  5.41300 
     C  4.78900 25.23200  6.65200 
     C  4.12000 25.76400  7.75500 
     C  3.36500 26.92500  7.59900 
     N  0.48800 28.18000  7.49800 
     C -0.56800 28.63700  8.08600 
     O -1.38900 27.80800  8.75200 
     C -0.83700 30.05900  7.98700 
     N -1.80600 31.02200  8.42500 
     N -0.33700 32.09600  7.31800 
     C  0.01200 30.84400  7.31100 
     N  1.17200 30.27800  6.70900 
     N  2.52300 28.72100  6.15700 
     C  3.28400 27.56000  6.35300 
     C  3.99500 27.03500  5.27700 
     H -1.97300 33.08500  8.15900 
     H -0.54100 26.05400  8.04300 
     H  0.45400 26.77600  9.31100 
     H -2.25800 26.12500 10.29600 
     H -0.40900 24.04200  9.06300 
     H -2.10600 24.28200  8.73600 
     H -1.60900 22.27100 10.17600 
     H -2.68400 23.42200 10.91600 
     H  0.23000 23.01400 11.61800 
     H -1.15200 22.65200 12.62300 
     H -0.02700 24.81100 13.27200 
     H -1.68700 25.01800 12.86200 
     H -0.47400 26.85300 11.82400 
     H  0.67100 25.72900 11.14800 
     H  5.27300 25.46900  4.56500 
     H  4.18500 25.27800  8.72000 
     H  2.83900 27.33000  8.45000 
     H  0.08900 32.89600  6.84400 
     H  2.94300 29.46000  5.61000 
     H  3.98300 27.53300  4.32700 
     S  5.78400 23.71700  6.80700 
     O  6.52700 23.82800  8.13800 
     H  4.71500 21.55700  7.21400 
     H  3.82200 22.85800  8.00600 
     C  4.35400 22.57800  7.09700 
     H  3.66100 22.60700  6.25800 


--Link1--
%NPROC=1', f'%MEM=512MB
%chk=binder_31.antechamber.chk
#P PBE1PBE/6-31G* OPT(CalcFC) GEOM(ALLCheck) Guess(Read)

Gaussian Calculation

0 1


--Link1--
%NPROC=1', f'%MEM=512MB
%chk=binder_31.antechamber.chk
#P HF/6-31G* GEOM(AllCheck) Guess(Read) NoSymm Pop=mk IOp(6/33=2) GFInput GFPrint

Gaussian Calculation

0 1


