%NPROC=1', f'%MEM=512MB
%chk=binder_28.antechamber.chk
#P HF/6-31G* OPT(CalcFC)

Gaussian Calculation

0 1
     C  1.42200 29.03400  6.76800 
     C -1.45000 32.16300  8.00800 
     C -0.58200 26.62500  8.97800 
     C -1.25000 25.76700 10.08100 
     C -1.35500 24.33100  9.52700 
     C -1.65300 23.27300 10.60300 
     C -0.78100 23.34300 11.86500 
     C -0.71200 24.77900 12.43200 
     C -0.38800 25.86000 11.38000 
     C  4.57000 25.66800  5.75600 
     C  4.56100 25.16400  7.06100 
     C  3.98100 25.90200  8.09100 
     C  3.34400 27.10200  7.79200 
     N  0.48800 28.18000  7.49800 
     C -0.56800 28.63700  8.08600 
     O -1.38900 27.80800  8.75200 
     C -0.83700 30.05900  7.98700 
     N -1.80600 31.02200  8.42500 
     N -0.33700 32.09600  7.31800 
     C  0.01200 30.84400  7.31100 
     N  1.17200 30.27800  6.70900 
     N  2.52300 28.72100  6.15700 
     C  3.27300 27.57700  6.47600 
     C  3.93100 26.87500  5.47000 
     H -1.97400 33.08500  8.15900 
     H -0.54100 26.05400  8.04300 
     H  0.45400 26.77500  9.31000 
     H -2.25800 26.12500 10.29600 
     H -0.40900 24.04200  9.06400 
     H -2.10600 24.28200  8.73600 
     H -1.60900 22.27100 10.17600 
     H -2.68400 23.42200 10.91600 
     H  0.23000 23.01400 11.61800 
     H -1.15100 22.65200 12.62300 
     H -0.02600 24.81100 13.27200 
     H -1.68700 25.01800 12.86200 
     H -0.47400 26.85300 11.82400 
     H  0.67100 25.72800 11.14800 
     H  5.04500 25.11600  4.95700 
     H  3.99000 25.53600  9.11000 
     H  2.85200 27.64300  8.58400 
     H  0.08800 32.89600  6.84400 
     H  3.00200 29.47900  5.69100 
     H  3.91600 27.24700  4.45700 
     S  5.29500 23.57000  7.41700 
     O  6.60500 23.82900  8.01300 
     O  5.18500 22.75800  6.20000 
     H  4.52300 23.18800  9.60100 
     N  4.32500 22.80500  8.65200 
     C  2.89800 22.52900  8.38700 
     H  2.51400 21.83500  9.13600 
     H  2.32800 23.45300  8.47600 
     H  2.76500 22.10100  7.39200 


--Link1--
%NPROC=1', f'%MEM=512MB
%chk=binder_28.antechamber.chk
#P PBE1PBE/6-31G* OPT(CalcFC) GEOM(ALLCheck) Guess(Read)

Gaussian Calculation

0 1


--Link1--
%NPROC=1', f'%MEM=512MB
%chk=binder_28.antechamber.chk
#P HF/6-31G* GEOM(AllCheck) Guess(Read) NoSymm Pop=mk IOp(6/33=2) GFInput GFPrint

Gaussian Calculation

0 1


