%NPROC=1', f'%MEM=512MB
%chk=binder_1h1s.antechamber.chk
#P HF/6-31G* OPT(CalcFC)

Gaussian Calculation

0 1
     C  1.42200 29.03400  6.76800 
     C -1.45000 32.16300  8.00800 
     C -0.58200 26.62500  8.97800 
     C -1.25000 25.76700 10.08100 
     C -1.35500 24.33100  9.52700 
     C -1.65300 23.27300 10.60300 
     C -0.78100 23.34300 11.86500 
     C -0.71200 24.77900 12.43200 
     C -0.38800 25.86000 11.38000 
     C  4.58300 25.67100  5.79000 
     C  4.57000 25.17700  7.10000 
     C  3.98000 25.92000  8.12000 
     C  3.34100 27.11600  7.80800 
     N  0.48800 28.18000  7.49800 
     C -0.56800 28.63700  8.08600 
     O -1.38900 27.80800  8.75200 
     C -0.83700 30.05900  7.98700 
     N -1.80600 31.02200  8.42500 
     N -0.33700 32.09600  7.31800 
     C  0.01200 30.84400  7.31100 
     N  1.17200 30.27800  6.70900 
     N  2.52300 28.72100  6.15700 
     C  3.27500 27.58100  6.48800 
     C  3.94000 26.87400  5.49000 
     H -1.97400 33.08500  8.15900 
     H -0.54100 26.05400  8.04300 
     H  0.45400 26.77600  9.31000 
     H -2.25800 26.12500 10.29600 
     H -0.40900 24.04200  9.06400 
     H -2.10600 24.28200  8.73600 
     H -1.60900 22.27100 10.17600 
     H -2.68400 23.42200 10.91600 
     H  0.23000 23.01400 11.61800 
     H -1.15200 22.65200 12.62300 
     H -0.02600 24.81100 13.27200 
     H -1.68700 25.01800 12.86200 
     H -0.47400 26.85300 11.82400 
     H  0.67100 25.72900 11.14800 
     H  5.06500 25.11600  4.99600 
     H  3.98500 25.56400  9.14200 
     H  2.84300 27.66000  8.59300 
     H  0.08800 32.89600  6.84400 
     H  3.00400 29.48000  5.69500 
     H  3.92800 27.23700  4.47500 
     S  5.30900 23.59200  7.46800 
     O  6.59900 23.83300  8.10800 
     O  5.21500 22.77100  6.25800 
     H  4.49400 23.25200  9.58500 
     N  4.32200 22.83700  8.64400 
     H  3.34000 22.91800  8.38900 


--Link1--
%NPROC=1', f'%MEM=512MB
%chk=binder_1h1s.antechamber.chk
#P PBE1PBE/6-31G* OPT(CalcFC) GEOM(ALLCheck) Guess(Read)

Gaussian Calculation

0 1


--Link1--
%NPROC=1', f'%MEM=512MB
%chk=binder_1h1s.antechamber.chk
#P HF/6-31G* GEOM(AllCheck) Guess(Read) NoSymm Pop=mk IOp(6/33=2) GFInput GFPrint

Gaussian Calculation

0 1


