%NPROC=1', f'%MEM=4096MB
%chk=binder_22.antechamber.chk
#P HF/6-31G* OPT(CalcFC)

Gaussian Calculation

0 1
     C  1.42200 29.03400  6.76800 
     C -1.45000 32.16300  8.00800 
     C -0.58200 26.62500  8.97800 
     C -1.25000 25.76700 10.08100 
     C -1.35500 24.33100  9.52700 
     C -1.65300 23.27300 10.60300 
     C -0.78100 23.34300 11.86500 
     C -0.71200 24.77900 12.43200 
     C -0.38800 25.86000 11.38000 
     C  4.56400 25.71800  5.87400 
     C  4.56900 25.29900  7.20800 
     C  3.88600 26.03300  8.17300 
     C  3.20700 27.20400  7.84700 
     N  0.48800 28.18000  7.49800 
     C -0.56800 28.63700  8.08600 
     O -1.38900 27.80800  8.75200 
     C -0.83700 30.05900  7.98700 
     N -1.80600 31.02200  8.42500 
     N -0.33700 32.09600  7.31800 
     C  0.01200 30.84400  7.31100 
     N  1.17200 30.27800  6.70900 
     N  2.52300 28.72100  6.15700 
     C  3.19800 27.60800  6.51800 
     C  3.86700 26.86900  5.54600 
     H -2.04700 33.03300  8.23900 
     H -0.51900 26.04600  8.05600 
     H  0.41500 26.92200  9.30300 
     H -2.25000 26.15200 10.28200 
     H -0.43000 24.07300  9.01200 
     H -2.12900 24.29500  8.76000 
     H -1.57000 22.27900 10.16200 
     H -2.70400 23.33400 10.88700 
     H  0.22600 22.99700 11.63000 
     H -1.18500 22.67300 12.62300 
     H  0.03000 24.81800 13.22900 
     H -1.65700 25.02100 12.91900 
     H -0.51100 26.84600 11.82600 
     H  0.66800 25.80300 11.11700 
     H  5.10400 24.40500  7.49100 
     S  3.86900 25.49700  9.80800 
     H  2.70600 27.77000  8.61800 
     H  0.06400 32.93500  6.92400 
     H  2.87300 29.31000  5.41400 
     H  3.83500 27.20800  4.52200 
     H  5.09600 25.14700  5.12700 
     C  2.88000 26.63800 10.80700 
     H  2.86900 26.28900 11.87000 
     H  3.32600 27.66200 10.75500 
     H  1.83300 26.66600 10.41300 


--Link1--
%NPROC=1', f'%MEM=4096MB
%chk=binder_22.antechamber.chk
#P PBE1PBE/6-31G* OPT(CalcFC) GEOM(ALLCheck) Guess(Read)

Gaussian Calculation

0 1


--Link1--
%NPROC=1', f'%MEM=4096MB
%chk=binder_22.antechamber.chk
#P HF/6-31G* GEOM(AllCheck) Guess(Read) NoSymm Pop=mk IOp(6/33=2) GFInput GFPrint

Gaussian Calculation

0 1


