%NPROC=1', f'%MEM=512MB
%chk=binder_26.antechamber.chk
#P HF/6-31G* OPT(CalcFC)

Gaussian Calculation

0 1
     C  1.42200 29.03400  6.76800 
     C -1.45000 32.16300  8.00800 
     C -0.58200 26.62500  8.97800 
     C -1.25000 25.76700 10.08100 
     C -1.35500 24.33100  9.52700 
     C -1.65300 23.27300 10.60300 
     C -0.78100 23.34300 11.86500 
     C -0.71200 24.77900 12.43200 
     C -0.38800 25.86000 11.38000 
     C  4.04000 25.67600  7.69600 
     C  4.78700 25.18600  6.62600 
     C  4.77900 25.88700  5.41400 
     C  4.04500 27.06400  5.28600 
     N  0.48800 28.18000  7.49800 
     C -0.56800 28.63700  8.08600 
     O -1.38900 27.80800  8.75200 
     C -0.83700 30.05900  7.98700 
     N -1.80600 31.02200  8.42500 
     N -0.33700 32.09600  7.31800 
     C  0.01200 30.84400  7.31100 
     N  1.17200 30.27800  6.70900 
     N  2.52300 28.72100  6.15700 
     C  3.27900 27.54700  6.34200 
     C  3.29700 26.85000  7.55800 
     H -1.97300 33.08500  8.15900 
     H -0.54000 26.05400  8.04300 
     H  0.45300 26.77600  9.31200 
     H -2.25800 26.12500 10.29600 
     H -0.40900 24.04200  9.06300 
     H -2.10600 24.28200  8.73600 
     H -1.60900 22.27100 10.17600 
     H -2.68400 23.42200 10.91600 
     H  0.23000 23.01400 11.61800 
     H -1.15200 22.65200 12.62300 
     H -0.02700 24.81100 13.27300 
     H -1.68700 25.01800 12.86200 
     H -0.47400 26.85300 11.82400 
     H  0.67100 25.72900 11.14700 
     H  4.04300 25.15100  8.64100 
     O  5.50500 24.02100  6.83300 
     H  5.35100 25.55000  4.56400 
     H  4.08000 27.60000  4.35600 
     H  0.08900 32.89500  6.84400 
     H  2.92500 29.44900  5.58300 
     H  2.73200 27.21300  8.40300 
     C  6.60800 23.75700  5.96300 
     H  7.17800 22.90800  6.34000 
     H  6.27600 23.50200  4.95600 
     H  7.29400 24.60400  5.90700 


--Link1--
%NPROC=1', f'%MEM=512MB
%chk=binder_26.antechamber.chk
#P PBE1PBE/6-31G* OPT(CalcFC) GEOM(ALLCheck) Guess(Read)

Gaussian Calculation

0 1


--Link1--
%NPROC=1', f'%MEM=512MB
%chk=binder_26.antechamber.chk
#P HF/6-31G* GEOM(AllCheck) Guess(Read) NoSymm Pop=mk IOp(6/33=2) GFInput GFPrint

Gaussian Calculation

0 1


