%NPROC=1', f'%MEM=512MB
%chk=binder_29.antechamber.chk
#P HF/6-31G* OPT(CalcFC)

Gaussian Calculation

0 1
     C  1.42200 29.03400  6.76800 
     C -1.45000 32.16300  8.00800 
     C -0.58200 26.62500  8.97800 
     C -1.25000 25.76700 10.08100 
     C -1.35500 24.33100  9.52700 
     C -1.65300 23.27300 10.60300 
     C -0.78100 23.34300 11.86500 
     C -0.71200 24.77900 12.43200 
     C -0.38800 25.86000 11.38000 
     C  3.96400 25.58800  7.58300 
     C  4.70300 25.13600  6.48600 
     C  4.78000 25.91800  5.33400 
     C  4.07100 27.11100  5.25800 
     N  0.48800 28.18000  7.49800 
     C -0.56800 28.63700  8.08600 
     O -1.38900 27.80800  8.75200 
     C -0.83700 30.05900  7.98700 
     N -1.80600 31.02200  8.42500 
     N -0.33700 32.09600  7.31800 
     C  0.01200 30.84400  7.31100 
     N  1.17200 30.27800  6.70900 
     N  2.52300 28.72100  6.15700 
     C  3.27300 27.54300  6.31300 
     C  3.26000 26.78900  7.49400 
     H -1.97400 33.08500  8.15900 
     H -0.53900 26.05400  8.04300 
     H  0.45300 26.77700  9.31200 
     H -2.25800 26.12500 10.29600 
     H -0.40900 24.04200  9.06300 
     H -2.10600 24.28200  8.73600 
     H -1.60900 22.27100 10.17600 
     H -2.68400 23.42200 10.91600 
     H  0.23000 23.01400 11.61800 
     H -1.15200 22.65200 12.62300 
     H -0.02700 24.81100 13.27300 
     H -1.68700 25.01800 12.86200 
     H -0.47400 26.85300 11.82400 
     H  0.67100 25.72900 11.14800 
     H  3.92000 25.00900  8.49600 
     H  5.39200 25.62100  4.49700 
     H  4.14900 27.70300  4.36600 
     H  0.08800 32.89600  6.84400 
     H  2.91600 29.44600  5.57400 
     H  2.68300 27.12000  8.34400 
     S  5.57400 23.56900  6.56500 
     O  4.94400 22.77900  7.62900 
     O  7.00400 23.88200  6.64700 
     N  5.28300 22.71000  5.02500 
     C  3.90300 22.27200  4.71900 
     H  3.91800 21.40500  4.05800 
     H  3.38100 22.00300  5.63800 
     H  3.35700 23.08700  4.24300 
     C  6.12700 23.02600  3.84600 
     H  6.21300 22.14900  3.20400 
     H  5.69600 23.84900  3.27600 
     H  7.12900 23.31400  4.16600 


--Link1--
%NPROC=1', f'%MEM=512MB
%chk=binder_29.antechamber.chk
#P PBE1PBE/6-31G* OPT(CalcFC) GEOM(ALLCheck) Guess(Read)

Gaussian Calculation

0 1


--Link1--
%NPROC=1', f'%MEM=512MB
%chk=binder_29.antechamber.chk
#P HF/6-31G* GEOM(AllCheck) Guess(Read) NoSymm Pop=mk IOp(6/33=2) GFInput GFPrint

Gaussian Calculation

0 1


